12
MA-Pb-I	Energy:   -1276.5521454
C          4.25545        2.42522        3.55495
N          2.81819        2.08596        3.46219
H          4.65395        2.55921        2.54549
H          4.78188        1.61530        4.06394
H          4.34757        3.37165        4.10581
H          2.61984        1.38198        2.74185
H          2.22077        2.94017        3.26261
H          2.46807        1.71152        4.37125
Pb         0.77157        5.07841        0.34953
I          0.92282        5.08322        3.56239
I          3.85134        5.19085        0.38308
I          0.70163        1.93969        0.22448
