12
MA-Pb-I	Energy:   -1279.9105735
C          2.96440        2.29347        2.77329
N          3.10931        3.68282        3.26770
H          1.96339        1.90730        3.03606
H          3.74536        1.66827        3.23157
H          3.08892        2.28300        1.67969
H          3.01701        3.77127        4.30754
H          2.36691        4.30975        2.87377
H          4.04914        4.11132        3.03365
Pb        -0.16186        5.71488       -0.11556
I          6.18174        5.71553        3.11898
I          6.11271        2.60795       -0.03007
I          3.05568       -0.53712        6.29220
