12
MA-Pb-I	Energy:   -1279.0327052
C          2.91429        3.35394        2.70038
N          2.52801        2.90654        4.06613
H          2.57272        4.40017        2.55282
H          2.43718        2.69836        1.95363
H          4.02001        3.31025        2.60036
H          1.48696        2.93232        4.23790
H          2.93635        3.54576        4.79054
H          2.82903        1.93026        4.29071
Pb         5.93517        5.95086        6.19189
I          5.91629       -0.32280        3.01866
I          5.83678        2.84726       -0.19150
I          2.79452        5.96222        6.11870
