12
MA-Pb-I	Energy:   -1277.0366927
C          2.75598        2.58540        3.42865
N          3.97462        3.43735        3.30286
H          1.87884        3.18350        3.12022
H          2.64302        2.28306        4.48309
H          2.85872        1.70129        2.78205
H          3.93882        4.25779        3.96025
H          4.10517        3.80689        2.33502
H          4.83296        2.90667        3.55492
Pb         0.20168        5.83295       -0.01603
I          0.25122        5.92805        3.18133
I          0.14129        2.73098        0.01076
I          3.36487       -0.52279       -0.03300
