12
MA-Pb-I	Energy:   -1279.6885563
C          3.14586        3.49101        2.92239
N          3.46824        2.04816        2.91174
H          2.05235        3.63138        2.88726
H          3.60537        3.96669        2.04009
H          3.54547        3.94475        3.84423
H          3.11610        1.56694        2.04502
H          3.06613        1.54742        3.74103
H          4.50166        1.83766        2.94020
Pb         6.27518        6.21731        6.20245
I          6.31852        6.21279        3.01622
I          6.15097        3.08950       -0.15241
I          3.12625        0.02507        6.15314
