12
MA-Pb-I	Energy:   -1280.1353727
C          2.99977        2.49279        3.71476
N          2.97271        3.80023        3.01114
H          3.91772        1.94821        3.43223
H          2.10849        1.90983        3.43082
H          2.99826        2.66528        4.80332
H          2.97701        3.71083        1.97267
H          3.81694        4.39019        3.24536
H          2.11217        4.35993        3.24477
Pb         6.07120        5.84370        6.40319
I          6.06256        5.83431        3.23526
I          5.97501        2.74115        0.02711
I          2.93065        5.82441        6.33921
