12
MA-Pb-I	Energy:   -1279.0222938
C          2.65238        3.61639        3.46380
N          3.46371        2.37243        3.38789
H          2.62231        4.08546        2.47124
H          3.10923        4.30135        4.19439
H          1.63172        3.36516        3.79051
H          4.46134        2.55185        3.15005
H          3.11485        1.72452        2.63733
H          3.46358        1.84962        4.29328
Pb        -0.06011        0.22600        0.25222
I          0.04659        0.22842        3.44255
I          6.15540        3.31951        0.37055
I          3.08866        0.29402        0.28052
