12
MA-Pb-I	Energy:   -1278.3542005
C          2.50306        3.10997        2.03324
N          3.79256        3.03592        2.77718
H          1.77117        3.65053        2.65511
H          2.14346        2.08519        1.82931
H          2.65539        3.64695        1.08389
H          3.67605        2.64923        3.73926
H          4.25382        3.97139        2.87139
H          4.47802        2.38383        2.31521
Pb        -0.41342        0.05254       -0.79750
I          5.80675        0.02862        2.44775
I          5.92169        3.14766       -0.69731
I          2.82265        0.11253        5.58182
