12
MA-Pb-I	Energy:   -1279.3152572
C          2.47943        3.19602        3.65903
N          3.45883        3.49951        2.57912
H          1.55120        2.79677        3.21328
H          2.26082        4.12719        4.20812
H          2.91523        2.44981        4.34579
H          3.09290        4.19972        1.87192
H          3.75391        2.65622        2.04228
H          4.33133        3.94922        2.95644
Pb        -0.21089       -0.08953        0.12017
I          6.03837       -0.14310        3.35885
I          6.13335        3.03202        0.16479
I          2.94873       -0.06388        0.19627
