12
MA-Pb-I	Energy:   -1188.6664659
C          3.43059        3.35433        2.34028
N          3.45889        3.15597        3.75345
H          2.84132        2.55847        1.86890
H          4.49003        3.26938        2.04906
H          3.05923        4.31868        1.99514
H          3.78357        2.14908        3.95437
H          2.60929        3.21909        4.27172
H          4.10859        3.83360        4.17525
Pb         0.16948       -4.37264        0.39876
I          4.44857       -0.24933        3.56358
I          0.08687        4.91163        0.29111
I          0.30203        2.31654        3.83713
