12
MA-Pb-I	Energy:   -1278.0211240
C          2.86042        1.33729        3.00288
N          2.68069        2.68375        2.39528
H          3.93746        1.15153        3.12244
H          2.39152        0.58153        2.35261
H          2.36461        1.33514        3.98853
H          3.33320        2.88058        1.61382
H          2.83541        3.43024        3.12697
H          1.71549        2.86010        2.03642
Pb        -0.29547        4.64824        5.26972
I          5.99467        1.54248        5.28845
I          5.93276        4.62553        2.15907
I          2.84530        4.64125        5.34980
