12
MA-Pb-I	Energy:   -1277.2324628
C          2.92565        2.65158        3.48297
N          2.97217        1.50670        4.41669
H          3.92792        3.09128        3.38918
H          2.21746        3.40442        3.86522
H          2.57982        2.30269        2.49816
H          3.25876        1.81272        5.36421
H          3.68455        0.78133        4.13989
H          2.04786        1.02986        4.51427
Pb         6.20380        5.35623        1.15020
I          6.14665        2.24151        1.08852
I          6.19646        5.51647       -2.06561
I          3.07235        5.25352        1.18360
