12
MA-Pb-I	Energy:   -1243.7075194
C          2.57084        3.09899        3.72034
N          3.59037        3.01407        2.65492
H          2.82813        2.60131        4.63297
H          1.61825        2.69438        3.38193
H          2.40116        4.15493        3.98452
H          3.11697        2.72027        1.77091
H          4.30333        2.28374        2.83801
H          4.07423        3.90660        2.51646
Pb        -4.91356       -0.15861       -4.82880
I          4.75844       -0.16351        1.83406
I          0.83388        2.92669        0.88798
I          1.47184       -0.07187        4.99501
