12
MA-Pb-I	Energy:   -1280.0553722
C          3.01352        2.72409        3.67065
N          3.01113        4.03421        2.96770
H          3.97387        2.21405        3.48919
H          2.18696        2.10287        3.28655
H          2.87609        2.88739        4.75273
H          3.09714        3.94400        1.93389
H          3.81629        4.64358        3.26896
H          2.12013        4.57304        3.13570
Pb        -0.10734        6.07829        6.22991
I          6.14767        6.07424        3.12406
I          6.08360        2.98429       -0.08576
I          3.03811       -0.17517        6.24637
