12
MA-Pb-I	Energy:   -1224.1172642
C          3.12648        2.71146        3.26145
N          2.39656        3.94649        3.02906
H          3.96303        2.92795        3.94350
H          3.65260        2.30515        2.37682
H          2.43698        1.91750        3.57960
H          3.14062        4.73579        2.95420
H          1.77028        4.17379        3.80330
H          1.85185        3.90142        2.15300
Pb        -2.98224        1.80622       -0.15645
I          5.06120       -0.16646        3.13147
I          0.23583        1.84835       -0.11906
I          3.25967        4.96871        6.32418
