12
MA-Pb-I	Energy:   -1276.3387471
C          2.87613        3.90922        3.59142
N          2.47428        2.94571        2.52694
H          2.75455        4.93098        3.20060
H          3.93309        3.72689        3.85379
H          2.24354        3.76444        4.47609
H          3.18427        2.89293        1.76010
H          1.56423        3.18243        2.07614
H          2.36261        1.97600        2.89275
Pb         5.61986        0.66838        0.00116
I         -0.66150        3.76124        0.06608
I          5.66453        0.75189        3.18730
I          2.53650        0.62152        6.24145
