12
MA-Pb-I	Energy:   -1280.3334662
C          2.47726        3.12044        3.59866
N          3.79304        3.13892        2.91027
H          2.64314        3.17583        4.68657
H          1.95277        2.18330        3.35186
H          1.88724        3.98940        3.27106
H          4.38532        2.30706        3.17919
H          4.34257        4.00964        3.12617
H          3.72247        3.10165        1.86950
Pb        -0.51136        0.04266       -0.20538
I          5.81091        0.04135        3.07738
I          5.76653        3.16246       -0.15610
I          2.72344        0.03661        6.16525
