12
MA-Pb-I	Energy:   -1239.3246059
C          2.05143        4.51625        3.01167
N          3.46985        4.60513        2.68642
H          1.78454        5.24594        3.78898
H          1.84952        3.50503        3.37260
H          1.44918        4.65584        2.11414
H          4.05052        4.41571        3.53217
H          3.72769        5.55336        2.35513
H          3.71519        3.93852        1.94404
Pb         3.47883        1.93266       -0.96743
I          3.39968        1.60118        2.02021
I          0.32456        1.94635       -1.09093
I          3.91692       -1.00899        5.69816
