12
MA-Pb-I	Energy:   -1278.3511851
C          2.69058        3.50882        2.66714
N          3.95675        2.76803        2.90819
H          1.99753        3.31800        3.50535
H          2.25069        3.14693        1.72284
H          2.92129        4.57399        2.58378
H          3.81882        1.73536        3.00869
H          4.44032        3.07605        3.77424
H          4.62347        2.89161        2.10546
Pb        -0.24540        0.01340       -0.17927
I          6.06657       -0.13710        3.07091
I          5.99045        3.12013       -0.18084
I          2.90047        0.15259       -0.10348
