12
MA-Pb-I	Energy:   -1280.5887161
C          4.07226        3.49223        2.51265
N          3.35804        2.49761        3.34513
H          3.34854        4.04306        1.88959
H          4.80545        2.98988        1.85999
H          4.59652        4.20696        3.16869
H          2.76865        1.81605        2.80377
H          2.68031        2.93432        4.03255
H          3.98906        1.90483        3.93931
Pb         0.94166       -0.09845        5.77691
I          4.08173       -0.10405        5.75870
I          0.83221        3.02212       -0.57037
I          0.91069       -0.08142        2.59849
