12
MA-Pb-I	Energy:   -1166.1532762
C         -0.49357        0.75933       -0.59104
N          3.06482        2.13058        3.32250
H          3.26635        5.68550        2.63834
H          0.59464        0.31798        5.47784
H          2.50682        5.72645        2.45622
H          3.82659        1.61712        2.86782
H          3.12001        3.13952        3.06424
H          2.15305        1.75182        3.00852
Pb         3.33052        1.99939        5.74350
I          6.00721        0.46807        1.68941
I          0.08274        2.97123       -0.81080
I          3.03429        5.08865        5.85881
