12
MA-Pb-I	Energy:   -1272.0640977
C          2.22835        2.61018        3.82448
N          1.06364        2.84464        2.94965
H          1.82383        2.35663        4.80572
H          2.83629        3.52382        3.85488
H          2.79851        1.75418        3.42607
H          0.58956        3.72989        3.21628
H          0.35973        2.07101        2.99704
H          1.36224        2.95015        1.95128
Pb        -1.85407       -0.35853        1.02667
I          1.34186       -0.29960        1.31129
I          4.13736        2.77735        0.85479
I          4.64659        5.88654        4.28968
