12
MA-Pb-I	Energy:   -1278.5208505
C          2.87424        3.00130        3.65040
N          3.26973        3.54202        2.32424
H          3.32941        3.61450        4.44290
H          3.23465        1.95913        3.74035
H          1.77841        3.01488        3.74814
H          4.31176        3.54604        2.16708
H          2.94987        4.52398        2.14482
H          2.88244        2.94100        1.55787
Pb        -0.10452        0.35945        0.35439
I          6.14188        0.37832        3.59354
I          6.27535        3.46387        0.43605
I          3.01972        0.39483        0.37185
