12
MA-Pb-I	Energy:   -1108.7718924
C          1.89375        2.95391       -0.30228
N          3.94960        3.12080        2.53362
H          3.00782        5.41621        4.20675
H          2.24870        3.92371        5.51546
H          1.34742        0.60614        3.99721
H          4.33383        4.02673        2.58913
H          4.43426        2.54233        1.76424
H          4.08069        2.64788        3.41054
Pb        -4.84354        3.03836        1.89904
I          1.17886       -0.10969        2.14119
I         -0.18263        2.61679       -0.75578
I          2.91516        0.78479        5.09482
