12
MA-Pb-I	Energy:   -1278.3758458
C          3.52966        2.96481        2.38753
N          2.63682        2.54441        3.49349
H          3.10330        3.85501        1.89880
H          3.59543        2.14404        1.65501
H          4.52804        3.18571        2.78712
H          1.68972        2.23722        3.15103
H          2.48176        3.29114        4.19682
H          2.99005        1.71400        4.04485
Pb         0.12295        0.08551        6.01658
I          0.03419        0.12321       -3.54749
I          0.09467        3.18995       -0.33593
I          3.25360        0.01588        6.00741
