12
MA-Pb-I	Energy:   -1250.1813822
C          2.78183        3.33081        3.82473
N          2.54290        2.06177        3.08406
H          2.54571        4.22078        3.22178
H          3.80041        3.22620        4.11383
H          2.14175        3.35484        4.70112
H          3.41659        1.72626        2.62111
H          1.82907        2.15811        2.33915
H          2.21964        1.34749        3.78514
Pb         4.74715        4.66605        0.39986
I          5.36355       -1.09188        3.60921
I          1.55967        4.57449        0.60978
I          4.50172        1.62313        0.30475
