12
MA-Pb-I	Energy:   -1277.7070510
C          3.01998        3.36573        3.51714
N          3.38862        4.32075        4.59310
H          2.23354        2.69245        3.88100
H          3.90818        2.79517        3.21210
H          2.61544        3.93389        2.66685
H          4.02582        3.91783        5.32223
H          2.54953        4.66312        5.10200
H          3.90626        5.16357        4.22493
Pb        -0.29028        0.67821        0.94533
I         -0.25705        3.80534        0.85773
I         -0.46829        0.64344       -2.23500
I          2.86729        0.64484        0.99912
