12
MA-Pb-I	Energy:   -1276.2737027
C          3.05548        3.25106        3.09012
N          4.24677        3.04645        3.98619
H          2.38442        2.37663        3.15828
H          3.42104        3.37148        2.05039
H          2.50354        4.15280        3.40791
H          4.78814        2.18456        3.78796
H          3.95875        2.97962        4.98637
H          4.89628        3.84572        3.92955
Pb         0.50329        0.26644        1.07363
I          3.70990        0.26114        1.27757
I          0.46536        3.38713        0.98324
I          0.42695        0.24519        4.19053
