12
MA-Pb-I	Energy:   -1278.5969182
C          2.85834        3.56223        3.14286
N          3.33476        2.16886        2.98193
H          2.78424        4.03576        2.14916
H          3.58167        4.11056        3.77014
H          1.87081        3.56199        3.63781
H          4.32287        2.10311        2.65652
H          2.75572        1.63730        2.29001
H          3.29248        1.63589        3.89474
Pb        -0.10848        0.17566        5.99811
I         -0.04177        0.19497        2.79494
I          6.01371        3.27843       -0.31947
I          2.96959        0.18983       -0.33188
