12
MA-Pb-I	Energy:   -1279.5110432
C          3.62176        2.83412        3.35003
N          3.01863        4.17558        3.15306
H          3.33298        2.17656        2.51233
H          3.25801        2.41404        4.30277
H          4.71874        2.92523        3.39275
H          1.97352        4.19234        3.19637
H          3.26403        4.59613        2.22040
H          3.34513        4.84412        3.89436
Pb         0.12220       -0.06804        6.34355
I          0.05553       -0.06569        3.16312
I          0.03968        3.05508       -0.03547
I          3.28600       -0.08091        6.37444
