12
MA-Pb-I	Energy:   -1217.9782345
C          2.40001        3.39565        3.63837
N          3.19094        3.80330        2.43027
H          1.51746        4.11899        3.72742
H          3.09026        3.35605        4.49879
H          1.99451        2.39553        3.47382
H          3.73175        4.74179        2.60350
H          2.56202        3.97378        1.60370
H          3.98933        3.19196        2.12184
Pb         1.50562        0.49045        2.39038
I          4.78252        0.61131        2.83716
I          0.16019        3.26295        0.95904
I          1.84838        0.28995        5.68653
