12
MA-Pb-I	Energy:   -1244.6572045
C          3.28535        1.92729        3.38765
N          3.29323        3.38824        3.38531
H          3.30415        1.57987        4.44552
H          4.17601        1.57604        2.83842
H          2.36623        1.56909        2.88053
H          4.21559        3.73997        3.69730
H          2.56402        3.77436        3.99793
H          3.13304        3.76426        2.42292
Pb         0.28468        2.99592        0.78589
I          0.31389       -0.10800        0.89862
I          3.47692        3.07869        0.35750
I          0.17660        2.90459        4.16524
