12
MA-Pb-I	Energy:   -1279.5433580
C          2.34739        4.70957        3.69803
N          2.79554        3.88421        2.55024
H          1.71174        4.10302        4.36591
H          1.78709        5.58373        3.33864
H          3.24294        5.03365        4.25792
H          2.01585        3.47713        1.99123
H          3.39700        3.06805        2.85272
H          3.40564        4.40424        1.86365
Pb         5.25900        1.42130       -0.00016
I          5.29217        1.43436        3.17144
I          2.11157        1.40419       -0.05115
I          5.26680       -1.69691        0.04629
