12
MA-Pb-I	Energy:   -1279.7753034
C          2.96894        3.81772        3.16105
N          2.75746        2.38169        3.45319
H          4.00180        4.09730        3.43255
H          2.25585        4.41036        3.75513
H          2.80649        4.00528        2.08884
H          2.86350        2.13406        4.47263
H          3.45865        1.78352        2.95124
H          1.79760        2.03424        3.18120
Pb        -0.29271        0.33456       -0.10171
I          6.01211        0.37488        3.14890
I          6.00238        3.43925       -0.07587
I          2.85542        0.33902       -0.00784
