12
MA-Pb-I	Energy:   -1279.2848147
C          2.40121        3.25688        2.80668
N          3.79821        3.52561        3.20475
H          1.73777        3.99646        3.28011
H          2.11505        2.24327        3.13342
H          2.30726        3.32901        1.71299
H          3.96835        3.44951        4.23814
H          4.13915        4.48790        2.94268
H          4.45031        2.83743        2.76614
Pb        -0.46710        0.23217       -0.35677
I          5.85448        0.24829        2.89522
I          5.79287        3.33592       -0.24567
I          2.75961        0.24254        6.02586
