12
MA-Pb-I	Energy:   -1277.4764023
C          2.55320        3.92631        2.77476
N          3.86414        3.36055        3.16159
H          1.75642        3.44472        3.36222
H          2.36224        3.76416        1.70105
H          2.55478        5.00970        2.98377
H          3.90573        2.31627        3.13856
H          4.15913        3.62494        4.13514
H          4.62120        3.70526        2.53769
Pb        -0.10154        0.43304        5.87973
I         -0.21783        0.33311        2.69989
I         -0.21791        3.55769       -0.51027
I          3.05063        0.47838        5.82236
