12
MA-Pb-I	Energy:   -1219.1568162
C          3.18875        3.32439        3.10758
N          2.86467        2.25018        4.06628
H          3.59169        2.85561        2.17427
H          3.72943        4.14648        3.61803
H          2.26261        3.84080        2.73991
H          3.67966        1.83389        4.57598
H          2.38735        1.46843        3.53095
H          2.18753        2.58393        4.80249
Pb        -0.19055       -2.54437       -3.78182
I         -0.07223        0.55872        2.74332
I          6.15706        3.61042       -0.60352
I          3.15935        0.47452        0.84429
