12
MA-Pb-I	Energy:    6407.0058125
C          3.99589        3.08790        3.20172
N          2.90779        2.11600        3.23492
H          4.55919        3.00113        4.15181
H          3.56541        4.09597        3.09820
H          4.64667        2.86348        2.33598
H          2.25769        2.29263        4.04339
H          3.27112        1.13787        3.32887
H          2.32783        2.14103        2.36227
Pb         4.58680        2.74428        3.13404
I          5.75296        6.22955        3.09091
I          5.65694        3.11499        0.21278
I          2.78365        6.22919        5.90912
