12
MA-Pb-I	Energy:   -1278.8595009
C          3.48882        3.58206        3.16793
N          4.82381        4.17997        3.42526
H          2.73607        4.11755        3.77021
H          3.51053        2.52636        3.49582
H          3.26278        3.65286        2.09306
H          5.07739        4.19362        4.44524
H          4.92522        5.15443        3.07646
H          5.57200        3.59173        2.97698
Pb         0.57874        1.26939       -0.14104
I          0.56158        1.24013        3.03531
I          3.73648        1.33621       -0.11820
I          0.59649        4.36687       -0.12212
