12
MA-Pb-I	Energy:   -1229.0864036
C          4.03130        2.74857        3.33764
N          2.61980        2.32497        3.20068
H          4.06288        3.76911        3.72460
H          4.52796        2.70940        2.36577
H          4.53909        2.13234        4.07973
H          2.10335        2.99324        2.58208
H          2.17016        2.34447        4.14966
H          2.48641        1.39581        2.75666
Pb        -1.80291        4.58609        0.06126
I          5.76187        5.45212        2.81838
I          1.35006        4.26379       -0.22907
I          4.14584        1.32686        0.01708
