12
MA-Pb-I	Energy:   -1208.6266928
C          2.69033        3.83858        3.82623
N          2.58354        2.30123        3.49386
H          2.82342        3.86432        4.96519
H          1.75586        4.30084        3.59236
H          3.59965        4.37246        3.38867
H          1.69835        1.96010        3.95092
H          3.33986        1.73354        3.99489
H          2.47873        2.07687        2.45130
Pb         5.57801        2.50920        1.91216
I          5.66289        5.68512        2.06190
I         -0.05347        2.84631       -1.02281
I          3.06782        1.32372        0.31856
