12
MA-Pb-I	Energy:   -1275.6638468
C          2.45407        3.69775        2.43476
N          3.52407        3.18677        3.34422
H          2.73551        4.68248        2.03341
H          1.50573        3.78663        2.98498
H          2.31082        2.99866        1.59777
H          3.51277        3.65403        4.27596
H          4.45829        3.39332        2.91171
H          3.48352        2.16129        3.49735
Pb        -0.59331        0.28034       -0.02606
I          5.69312        0.21702        3.23413
I          5.66333        3.39344        0.06311
I          2.64612        0.35494        6.36106
