12
MA-Pb-I	Energy:   -1279.0735571
C          3.19013        2.47471        3.32774
N          2.02405        2.86608        4.16197
H          3.87581        3.33067        3.24044
H          2.83787        2.17620        2.32829
H          3.70508        1.62373        3.80459
H          1.47528        3.67710        3.77098
H          2.29508        3.17174        5.12001
H          1.34513        2.07209        4.27506
Pb         6.10819        5.73145        0.59771
I         -0.09280       -0.45655        3.72440
I         -0.22330        2.60051        0.60179
I          2.96113       -0.55895        0.51068
