12
MA-Pb-I	Energy:   -1279.2840473
C          3.47667        3.20174        3.32750
N          2.75197        1.91361        3.15122
H          4.54994        3.05671        3.13041
H          3.34320        3.55182        4.36031
H          3.06975        3.93997        2.62369
H          3.05756        1.20406        3.86384
H          2.90755        1.48188        2.20332
H          1.71515        1.97798        3.25905
Pb        -0.21425        6.17718        6.32417
I          6.02835        6.16850        3.20721
I          5.98050        3.05002        0.02695
I          2.94509        6.18461        6.35900
