12
MA-Pb-I	Energy:   -1279.7033121
C          2.91033        3.44708        2.91084
N          3.29866        2.02541        3.05362
H          3.25794        3.82167        1.93313
H          3.37357        4.03164        3.72159
H          1.81329        3.54147        2.96867
H          4.33847        1.85779        3.02181
H          2.90512        1.43999        2.27438
H          2.98068        1.60513        3.96136
Pb        -0.10973       -0.01655        6.25315
I          6.20050        6.22223        3.12757
I          6.07359        3.08807       -0.02041
I          3.02677        0.01156        6.26415
