12
MA-Pb-I	Energy:   -1277.0911396
C          2.94917        2.74936        3.51800
N          3.76867        3.69563        2.71805
H          1.98896        2.55659        3.00575
H          2.76249        3.19086        4.51569
H          3.50826        1.79915        3.62853
H          3.27759        4.58476        2.51790
H          4.07151        3.30783        1.80130
H          4.64491        3.96818        3.23466
Pb         5.99136        0.13166        5.86942
I          6.00766       -6.01964        2.68911
I          5.86020        3.24934       -0.53303
I          2.84588        0.01945        5.84627
