12
MA-Pb-I	Energy:   -1272.5362975
C          4.03593        2.87853        4.99033
N          3.91814        3.02597        3.52121
H          4.38927        1.84892        5.17951
H          3.04371        3.05004        5.44850
H          4.74981        3.59025        5.36839
H          3.13345        2.46023        3.16943
H          4.76629        2.69009        3.04579
H          3.80192        4.01776        3.21029
Pb         1.04021        0.32582        1.47297
I          4.14566        0.03963        1.67907
I          1.13230        3.44412        1.31266
I          1.01067        0.57731        4.76296
