12
MA-Pb-I	Energy:   -1245.8080930
C          3.37970        2.95432        3.25939
N          4.35203        3.17055        4.33447
H          2.78064        3.97797        3.19662
H          2.67419        2.19991        3.67726
H          3.83256        2.67814        2.35733
H          3.88022        3.48047        5.22309
H          4.98004        3.91173        4.07844
H          4.88566        2.29474        4.59339
Pb         1.85590       -0.18288        1.92984
I          4.93881       -0.19230        2.26395
I          0.92613        2.88432        1.47663
I          2.20219        6.04490        5.23283
