12
MA-Pb-I	Energy:   -1220.3087700
C          2.56137        3.35535        3.28403
N          4.00242        3.52312        3.29566
H          2.16285        3.31390        4.33423
H          2.26255        2.37047        2.87708
H          2.04415        4.22947        2.84683
H          4.46027        2.67195        3.75848
H          4.32401        4.45604        3.75539
H          4.39399        3.55243        2.32109
Pb         2.17556        3.17015        0.25583
I          5.24856        0.30956        4.42156
I          5.44190        3.17000        0.22814
I          2.15908        0.03815        0.23906
