12
MA-Pb-I	Energy:   -1263.3934968
C          3.06686        3.91798        3.62797
N          4.06034        3.03757        2.93448
H          2.74981        3.34973        4.51199
H          2.18727        4.11255        2.97752
H          3.58211        4.83326        3.89596
H          3.59413        2.09125        2.76210
H          4.84480        2.86378        3.61039
H          4.41815        3.33727        2.00505
Pb         1.62199        1.45745        0.06545
I          1.46625        1.13234        3.12813
I          4.93924        1.51843        0.07868
I          1.48227        4.64720        0.16191
