12
MA-Pb-I	Energy:   -1279.7190763
C          2.56471        3.78084        2.78124
N          3.47031        2.94471        3.61505
H          3.16846        4.40370        2.09383
H          1.96030        4.43846        3.43031
H          1.88598        3.13469        2.19731
H          4.07719        3.50668        4.26364
H          4.13667        2.34625        3.05736
H          2.95362        2.27641        4.23737
Pb        -0.33819        0.36404       -0.00793
I          6.01623        0.38431        3.25225
I          5.88558        3.46705        0.04625
I          2.81873        0.39412        0.00353
