12
MA-Pb-I	Energy:   -1274.1972357
C          2.33571        3.15523        3.47589
N          1.51792        1.93695        3.16925
H          1.76950        4.04795        3.15390
H          3.27635        3.08737        2.89555
H          2.54221        3.19057        4.56075
H          1.24687        1.88890        2.16446
H          0.64500        1.87722        3.71844
H          2.09440        1.07586        3.37111
Pb         4.61610        5.56952        0.38441
I          4.42393        5.82031        3.52599
I          1.45516        5.45200        0.36538
I          4.79314        2.43375        0.32805
