12
MA-Pb-I	Energy:   -1272.6836488
C          3.26422        2.98308        3.03012
N          4.04721        3.08358        4.29857
H          2.28076        3.47836        3.21977
H          3.13150        1.90796        2.79294
H          3.82367        3.51121        2.22908
H          3.60241        2.54458        5.06632
H          4.09599        4.06257        4.62864
H          5.02241        2.74336        4.20402
Pb         1.23830       -0.08804        0.74791
I          4.41448       -0.08251        0.75743
I          1.10732        3.02417        0.61229
I          1.36818       -0.03067        3.99578
