12
MA-Pb-I	Energy:   -1279.0611817
C          3.75326        3.17467        3.45229
N          2.52533        3.26902        2.62648
H          3.46999        2.99913        4.50427
H          4.31998        4.11945        3.37057
H          4.37114        2.33225        3.09154
H          1.89833        4.06709        2.92483
H          1.95691        2.38644        2.66022
H          2.73795        3.45633        1.62458
Pb         0.23125       -0.01066       -0.07129
I          0.34990        0.01367        3.10792
I          0.20479        3.10949       -0.11475
I          3.35789       -0.05118        0.03158
