12
MA-Pb-I	Energy:   -1279.6096914
C          3.20185        4.01033        3.39943
N          3.35338        2.54605        3.55491
H          3.42085        4.29467        2.35779
H          3.90949        4.51363        4.07662
H          2.17103        4.30421        3.65550
H          4.32881        2.20201        3.33738
H          2.70132        2.02361        2.92704
H          3.15712        2.20997        4.53697
Pb        -0.13638        0.49763        0.01983
I          6.26523        0.51547        3.27282
I          6.09420        3.59859        0.04087
I          3.00936        0.50747        0.11167
