12
MA-Pb-I	Energy:   -1184.7523173
C          1.68076        2.82556        4.30799
N          2.54749        2.61407        3.07988
H          0.96781        3.59899        4.00539
H          2.30343        3.14651        5.16366
H         -0.60661        5.30590        6.13015
H          1.97223        2.98659        2.31315
H          2.71202        1.60339        2.82856
H          3.47008        3.09461        3.07054
Pb         0.65359        0.71237        5.01554
I          0.41563        0.41467        2.01432
I          5.47738        3.60479       -0.03610
I          3.60708        0.34978       -1.26872
