12
MA-Pb-I	Energy:   -1262.7519847
C          3.01416        3.02886        3.38327
N          4.28534        3.75112        3.57528
H          3.10002        1.98463        3.75676
H          2.77987        3.00107        2.31555
H          2.18561        3.61700        3.87861
H          5.07050        3.08492        3.37642
H          4.40725        4.10399        4.54219
H          4.32249        4.51812        2.89446
Pb         0.99636        1.04643        0.44716
I          0.85008        0.81814        3.72138
I          4.20913        1.10636        0.75908
I          1.18546        4.17438        0.26505
