12
MA-Pb-I	Energy:   -1279.6107538
C          3.57784        3.57460        2.84905
N          2.78765        2.31195        2.84594
H          3.28537        4.18582        3.71792
H          3.38449        4.12133        1.91297
H          4.64968        3.32749        2.92053
H          1.76161        2.46986        2.87904
H          3.00208        1.70731        3.68256
H          2.96455        1.73765        1.98256
Pb         6.10472        0.21904        5.95658
I          6.03977        0.23483        2.76942
I          6.03085        3.32312       -0.44747
I          2.97489        0.25394        5.95300
