12
MA-Pb-I	Energy:   -1279.1028028
C          3.33198        3.11298        3.72724
N          2.03522        3.35157        3.04566
H          3.74913        2.14845        3.39746
H          3.17562        3.09300        4.81665
H          4.02742        3.92691        3.47796
H          1.34707        2.59627        3.27022
H          2.12416        3.37446        2.01111
H          1.59180        4.27032        3.31153
Pb         6.18733        6.18422        6.21633
I          6.18301        0.03627        3.05937
I          6.14839        3.06365       -0.13723
I          3.01139       -0.09426        6.12925
