12
MA-Pb-I	Energy:   -1279.1340260
C          2.93647        3.34842        3.41510
N          3.44827        4.43181        2.54894
H          2.39876        2.61325        2.80057
H          2.25617        3.77343        4.16732
H          3.79056        2.87130        3.91647
H          2.70220        4.94060        2.02238
H          4.12043        4.09570        1.81875
H          3.98627        5.16153        3.07751
Pb        -0.00836        0.32477        6.13749
I         -0.00183        0.29901        2.95411
I          6.14634        3.47042       -0.09721
I          3.14786        0.29490        6.08896
