12
MA-Pb-I	Energy:   -1176.4715452
C          3.48091        3.41828        2.74775
N          2.42734        4.43928        2.88998
H          3.21400        1.17913       -0.10994
H          4.33771        3.79863        2.18715
H          3.08706        2.49866        2.33965
H          2.87328        5.29650        3.29932
H          1.69166        4.06517        3.58018
H          1.96087        4.69511        2.01102
Pb        -2.15960        2.87990        4.93402
I          5.10922        0.33263        3.65054
I          0.79326        2.86553       -1.00630
I          3.22926       -0.53336        0.05122
