12
MA-Pb-I	Energy:   -1275.6284112
C          3.52848        2.63826        3.14525
N          2.27461        3.13153        2.50751
H          3.55890        1.53991        3.06100
H          3.53755        2.93169        4.20319
H          4.41160        3.07181        2.63123
H          1.43501        2.73241        2.97241
H          2.20918        2.82738        1.51124
H          2.16422        4.17522        2.52032
Pb         5.94860       -0.07732        6.37013
I          5.91520       -0.15461        3.15057
I          5.92902        3.02629       -0.08499
I          2.73007        0.00511        0.12251
