12
MA-Pb-I	Energy:   -1271.4714838
C          3.33933        3.24153        3.48752
N          3.78692        3.06347        4.89248
H          4.20671        3.44734        2.83976
H          2.61384        4.06836        3.44348
H          2.82614        2.31281        3.17938
H          3.72124        3.94669        5.43270
H          4.75843        2.72014        5.00566
H          3.14985        2.35544        5.33980
Pb         0.99421        0.21207        1.31417
I          4.08627        0.16014        1.26241
I          0.83867        3.30443        1.14103
I          1.25805        0.32527        4.54579
