12
MA-Pb-I	Energy:   -1277.3191827
C          3.69734        2.64476        4.48546
N          4.22734        3.40121        3.32299
H          3.65443        1.57429        4.23328
H          2.67745        3.01159        4.70520
H          4.35053        2.80598        5.35493
H          3.52719        3.35503        2.53655
H          5.13611        3.04205        2.97254
H          4.35858        4.41160        3.52539
Pb         1.44520       -0.21253        1.25288
I          4.58988       -0.09931        1.26642
I          1.37685        2.91033        1.30352
I          1.48277        5.88103        4.45551
