12
MA-Pb-I	Energy:   -1278.3942594
C          3.66238        2.70275        3.62291
N          2.31451        3.04708        3.13612
H          4.29759        3.60440        3.63090
H          4.10558        1.94309        2.95830
H          3.59131        2.28577        4.64039
H          2.31191        3.41933        2.15704
H          1.84024        3.78779        3.70247
H          1.67999        2.20504        3.12832
Pb         0.13231       -0.21049        0.24097
I          0.20274       -0.13556        3.42692
I          0.14805        2.91505        0.20529
I          3.25705       -0.25536        0.32817
