12
MA-Pb-I	Energy:   -1276.9909182
C          2.69012        2.21020        3.37891
N          3.46107        2.66035        2.18800
H          3.32764        2.32899        4.27042
H          2.43288        1.14500        3.24775
H          1.77421        2.81151        3.48376
H          4.33975        2.09196        2.08988
H          3.74013        3.66373        2.23467
H          2.93277        2.51232        1.30910
Pb         5.81750       -0.23663        6.04914
I         -0.61357        6.02079        2.75732
I          5.82610        2.86552       -0.37116
I          2.61084        5.99315       -0.24411
