12
MA-Pb-I	Energy:   -1118.9234996
C          1.91339        1.45278       -5.00114
N          2.62325        4.10272        3.98576
H          4.67063        2.24320        2.62246
H          2.60058        1.82007        2.20832
H          1.15959        0.73780        1.60735
H          2.98070        3.98872        3.03085
H          3.07161        3.37892        4.59544
H          2.87523        5.04858        4.31983
Pb         0.20226       -2.78248        4.10368
I          5.04486        0.66515        3.39186
I          0.37309        3.40731        1.00688
I          3.23001        0.82747       -0.20280
