12
MA-Pb-I	Energy:   -1270.2196280
C          3.67343        2.68394        3.38173
N          2.25806        3.01619        3.04303
H          4.37364        2.97569        2.57527
H          3.78237        1.59758        3.56167
H          3.88314        3.21279        4.32743
H          1.96029        2.70102        2.12448
H          2.11108        4.06947        3.06595
H          1.64166        2.60005        3.77208
Pb        -0.62576       -0.47010       -0.91217
I          5.75422        5.80525        2.27561
I         -0.35103        2.59045       -0.69737
I          2.56016       -0.51128        5.26712
