12
MA-Pb-I	Energy:   -1197.6125701
C          2.59147        2.39724        3.06678
N          2.89412        3.59831        2.25033
H          1.50374        2.27376        3.11884
H          2.85437        2.45552        4.13685
H          3.12059        1.49993        2.67702
H          2.33183        4.41737        2.55297
H          2.78241        3.48690        1.21561
H          3.89508        3.85977        2.39497
Pb         5.54716        1.99598        4.03588
I          6.02600        5.19746        3.13142
I          5.61644        2.79028        0.60623
I          3.18540        0.35073        5.51544
