12
MA-Pb-I	Energy:   -1274.4601948
C          2.73695        1.99059        3.70069
N          3.39018        2.20660        5.02185
H          3.05968        2.79909        3.01313
H          1.64703        2.01666        3.82695
H          3.05464        1.01101        3.28507
H          3.16977        3.13024        5.46332
H          4.43241        2.20820        4.95267
H          3.11151        1.46958        5.71255
Pb         5.81769        5.05823        1.46052
I          5.79298        2.02175        1.62789
I          5.78510        4.89335       -1.71521
I          2.68863        5.10056        1.25521
