12
MA-Pb-I	Energy:   -1277.8841820
C          3.45205        3.97110        3.02596
N          2.30445        3.15432        3.51993
H          4.37075        3.35642        3.10153
H          3.55328        4.87996        3.64638
H          3.26932        4.25003        1.97267
H          2.51414        2.65077        4.42492
H          2.00144        2.41254        2.84813
H          1.45918        3.72899        3.70420
Pb         5.85914        0.80221        0.03386
I          5.89021        0.75366        3.22184
I         -0.37851       -2.31760       -0.06442
I          2.77973        0.88864        6.37073
