12
MA-Pb-I	Energy:   -1278.8597165
C          3.12132        2.71252        2.36407
N          3.42074        3.84128        3.28695
H          2.33515        2.07836        2.80732
H          4.03837        2.12154        2.21511
H          2.77297        3.11575        1.40100
H          3.78679        3.51113        4.21003
H          2.58661        4.43721        3.48143
H          4.18320        4.48810        2.92316
Pb        -0.14860       -0.05334        5.92606
I          6.15365       -0.11331        2.82467
I          6.01886        3.07540       -0.42909
I          3.00126       -0.01729        5.99788
