12
MA-Pb-I	Energy:   -1269.9270283
C          2.79881        3.23132        3.06519
N          3.07326        4.49158        2.26004
H          3.39507        3.25879        3.99820
H          3.08826        2.35922        2.46615
H          1.69480        3.20508        3.29230
H          4.11972        4.64958        2.17275
H          2.71022        5.29883        2.73287
H          2.70243        4.45966        1.29007
Pb        -0.16691        0.88084        5.10044
I          6.00040       -2.12559        4.97523
I         -0.34236        0.69431        1.95157
I          3.02242        0.82449        5.24058
