12
MA-Pb-I	Energy:   -1223.7453010
C          3.44632        2.79696        3.24507
N          3.16493        3.07684        1.85591
H          4.56988        2.79857        3.29204
H          3.07155        1.72561        3.50011
H          3.06118       -2.68158        4.00958
H          3.51136        2.41186        1.14016
H          3.51628        4.03801        1.58820
H          2.08344        3.11620        1.73299
Pb         0.05179        1.48646        4.51134
I          6.19950       -1.51060        3.72473
I          0.22123        1.50534        1.28249
I          3.00585        0.43827       -0.81012
