12
MA-Pb-I	Energy:   -1269.6483069
C          3.36415        2.84050        3.08892
N          2.48178        3.04983        4.30843
H          3.30891        1.78685        2.78638
H          4.40377        3.14701        3.34472
H          3.00911        3.52036        2.32354
H          2.51749        2.25218        5.00771
H          1.47192        3.16220        4.11074
H          2.77707        3.91488        4.82180
Pb         5.27351        5.94365        0.72642
I          2.17704       -0.53175        0.73068
I          5.25831        2.64294        0.49603
I          5.24387       -0.25386        3.89862
