12
MA-Pb-I	Energy:   -1279.8225480
C          2.37670        3.44417        2.52640
N          3.66088        3.47998        3.27051
H          1.80082        4.35679        2.75082
H          1.80757        2.55005        2.83114
H          2.58569        3.39424        1.44502
H          3.53498        3.49156        4.30210
H          4.22955        4.33794        3.04512
H          4.25722        2.63496        3.06815
Pb         5.71058        0.37110       -0.05615
I          5.71819        0.36571        3.11121
I          5.69637        3.48456       -0.03424
I          2.65077        0.36944        6.29130
