12
MA-Pb-I	Energy:   -1278.5396151
C          2.75576        3.33566        3.39232
N          1.89879        3.40970        4.62774
H          2.31184        2.60450        2.69271
H          3.76924        3.00745        3.66883
H          2.78549        4.34337        2.93882
H          1.88666        2.49874        5.15186
H          0.91412        3.65056        4.40941
H          2.22946        4.15150        5.29167
Pb         4.99684        0.15176        0.65081
I          1.85941        0.15932        0.55172
I          5.01832        3.25757        0.63849
I          4.98158        0.12270        3.88214
