12
MA-Pb-I	Energy:   -1252.2395161
C          2.52356        3.02063        3.54725
N          3.87856        2.43982        3.44114
H          1.81137        2.21533        3.74666
H          2.33229        3.45585        2.56295
H          2.56375        3.73990        4.35947
H          3.93395        1.86139        2.57789
H          4.12157        1.86225        4.28287
H          4.58549        3.21540        3.37548
Pb         1.06924        5.31770        0.40833
I          0.70062        5.48895        3.55194
I          4.27121        5.04334        0.32646
I          1.76965        2.01608        0.42671
