12
MA-Pb-I	Energy:   -1236.1525777
C          3.14657        3.27468        3.21148
N          3.81358        2.01172        2.88892
H          2.64146        3.67345        2.33019
H          3.93230        3.94241        3.53506
H          2.38905        3.18431        4.01571
H          4.14833        1.93711        1.90942
H          3.06716        1.25770        3.03278
H          4.60432        1.84308        3.54039
Pb         1.90637        1.60916        6.14249
I          0.98496        0.92440        2.57193
I          5.18704        1.88299       -0.29532
I          2.11296        4.71284        6.05497
