12
MA-Pb-I	Energy:   -1275.2040618
C          2.85789        2.99289        3.45368
N          2.98048        2.34766        4.79117
H          3.84692        3.29017        3.07595
H          2.20146        3.87038        3.55719
H          2.39792        2.28409        2.74903
H          3.42455        2.99924        5.47558
H          3.52964        1.46995        4.76651
H          2.03973        2.11518        5.16260
Pb        -0.24608        5.23282        0.98270
I         -0.23104        2.09677        1.01866
I          5.93722        5.23316       -2.10552
I          2.88858        5.29365        0.87706
