12
MA-Pb-I	Energy:   -1277.8743485
C          2.70545        3.71134        3.34729
N          2.42709        2.96163        4.60259
H          3.28674        3.06707        2.66258
H          3.30706        4.61115        3.59051
H          1.74981        4.00830        2.88596
H          3.30872        2.72246        5.11644
H          1.91143        2.06992        4.43218
H          1.83596        3.52447        5.26317
Pb         5.61749        6.16249        0.45363
I          5.74179       -0.01841        3.69498
I          5.56634        3.05361        0.41403
I          2.45948       -0.10225        0.39006
