12
MA-Pb-I	Energy:   -1242.2194457
C          2.61724        3.53366        3.40814
N          3.92274        3.47532        4.09724
H          1.92409        3.77682        4.23882
H          2.31761        2.54195        2.97861
H          2.56183        4.34448        2.61808
H          3.90069        2.67500        4.78293
H          4.00697        4.39084        4.60039
H          4.75633        3.35304        3.41547
Pb         4.43775        0.49940        2.01596
I          1.25109        0.42904        2.01696
I          5.21793        3.46241        1.27357
I          4.15953        0.40871        5.41622
