12
MA-Pb-I	Energy:   -1278.4261342
C          2.81543        3.39371        3.67769
N          3.40918        2.69883        2.50825
H          1.92399        2.84527        4.01293
H          2.55277        4.41933        3.39662
H          3.56303        3.40780        4.48306
H          2.70861        2.42022        1.78836
H          3.91585        1.80532        2.77702
H          4.13690        3.26038        1.98635
Pb         5.82364        0.00090        6.42820
I          5.67624        0.05074        3.21664
I         -0.41592        3.10522       -0.00398
I          2.62540       -0.01193        0.03865
