12
MA-Pb-I	Energy:   -1238.2879886
C          2.80525        3.73337        3.64794
N          2.08709        3.49815        2.37759
H          3.47921        4.62888        3.53918
H          3.42364        2.85022        3.94946
H          2.06193        3.95005        4.39113
H          2.74725        3.02725        1.67243
H          1.83376        4.37359        1.90646
H          1.29532        2.88156        2.55230
Pb         4.36170        0.66881        1.75291
I          0.91502        0.41253        2.15083
I          4.76372        3.85147        1.10194
I          4.17167        0.69498        5.13847
