12
MA-Pb-I	Energy:   -1278.8318714
C          3.11036        3.67728        2.99493
N          2.65117        2.57052        3.86040
H          3.44652        3.26990        2.03566
H          3.94392        4.20425        3.47796
H          2.28216        4.37602        2.83582
H          3.42018        1.90707        4.11154
H          1.88996        1.99036        3.41187
H          2.22888        2.90870        4.76292
Pb         6.09806        0.15415       -0.10883
I         -0.16432        0.18655        3.03905
I          6.11848        3.26139       -0.19237
I          3.02023        0.12305        6.30691
