12
MA-Pb-I	Energy:   -1051.1926872
C          0.69680        6.02656        5.49749
N          3.46683        3.30421        4.19212
H          3.66542        0.70523        3.10116
H         -0.72741        3.01004        2.74153
H          3.28339        2.27413        4.23176
H          2.73679        3.75697        3.62322
H          4.42823        3.39174        3.72127
H          3.44634        3.73718        5.13521
Pb        -1.30081       -4.85612        1.75090
I          0.73612       -0.05973        3.22729
I          0.36650        3.76467       -0.57648
I          2.96617        0.16039        5.96997
