12
MA-Pb-I	Energy:   -1276.8637852
C          3.39265        2.91540        3.06063
N          4.62533        2.12204        3.30014
H          3.33594        3.15935        1.98846
H          3.45494        3.84311        3.65009
H          2.52218        2.32700        3.37626
H          5.46985        2.68189        3.05466
H          4.66648        1.24563        2.76668
H          4.75589        1.85112        4.30034
Pb         0.66541        5.24538       -0.23894
I          0.62417        5.20529        2.95287
I          3.83899        5.31745       -0.20962
I          0.74133        2.11676        6.12607
