12
MA-Pb-I	Energy:   -1196.5957786
C          0.89512        4.30556        1.34366
N          2.22362        3.54730        1.54593
H         -3.27664       -2.96853        5.23170
H          0.21321        3.74466        2.06603
H          3.00967        4.06418        5.40076
H          2.30427        2.55843        1.26918
H          2.42284        3.60109        2.55939
H          2.95505        4.07141        1.04449
Pb         6.18212        0.61691        5.84877
I         -0.17717        0.85832        2.73344
I          6.25074        3.70667       -0.56867
I          3.05015        0.52778        5.71099
