12
MA-Pb-I	Energy:   -1246.3575816
C          3.53097        3.73133        3.19329
N          3.52527        2.25812        3.16186
H          2.72012        4.08898        3.85999
H          3.39056        4.10610        2.16441
H          4.49629        4.08422        3.58823
H          2.60684        1.92147        2.79417
H          3.71393        1.87463        4.11428
H          4.26540        1.91943        2.51388
Pb         0.74204        2.79845       -0.71420
I          4.07284        2.75764        6.16776
I          0.51657        2.88100        2.27455
I          0.88373       -0.29559        5.57724
