12
MA-Pb-I	Energy:   -1202.4492368
C         -5.00341        0.92185        3.15176
N          3.90621        3.43554        4.04698
H          1.82101       -0.00228        3.42331
H          1.17344        1.57294        4.06420
H          1.69667        1.44148        2.35534
H          3.23425        4.20110        4.00250
H          4.35647        3.68098        4.92863
H          3.42761        2.55417        4.20216
Pb         3.87172        3.01260       -5.73326
I          5.63290        0.45046        2.48814
I          0.87192        3.14470        0.55764
I          3.53270        0.10775       -0.20789
