12
MA-Pb-I	Energy:   -1277.5191217
C          3.12667        2.95189        2.99520
N          2.85745        3.98403        4.03215
H          3.21572        3.45397        2.02142
H          2.29378        2.22606        2.98662
H          4.06926        2.43062        3.24181
H          1.99860        4.54622        3.82183
H          3.64101        4.65580        4.14102
H          2.69439        3.54203        4.96385
Pb         6.10205        0.52374       -0.08345
I          6.15719        0.38689        3.14213
I          6.07234       -2.58567       -0.14712
I          3.01718        0.63337        6.24129
