12
MA-Pb-I	Energy:   -1279.6591318
C          2.22158        2.74000        3.71381
N          2.90252        3.74628        2.85693
H          1.46570        2.20163        3.12719
H          1.73602        3.25172        4.56409
H          2.96654        2.02554        4.09561
H          2.24432        4.43851        2.42026
H          3.43074        3.31479        2.05743
H          3.62832        4.32104        3.36797
Pb         5.69368       -0.26169        0.17943
I         -0.48541        5.90119        3.28302
I          5.59124        2.85197        0.24446
I          2.56041        6.03059        0.14067
