12
MA-Pb-I	Energy:   -1261.2896627
C          3.32005        3.73911        3.16706
N          2.11952        2.92295        2.94423
H          3.97454        3.62354        2.28475
H          3.83369        3.32754        4.02106
H          3.02358        4.76908        3.35773
H          2.35712        1.91958        3.03573
H          1.70867        3.02031        2.02904
H          1.41062        3.08277        3.66445
Pb         4.92092        1.46211       -0.37515
I          5.01689        0.92607        2.80014
I          1.70671        1.56148       -0.39617
I          5.15768        4.64555       -0.24093
