12
MA-Pb-I	Energy:   -1277.5391182
C          3.29990        3.63638        2.69670
N          3.36296        2.90565        3.99273
H          2.69114        4.54839        2.82784
H          2.82685        2.98979        1.93569
H          4.31945        3.90152        2.37602
H          2.41158        2.71221        4.38628
H          3.86949        3.46349        4.71640
H          3.86110        1.99203        3.92523
Pb         0.15002        0.01398       -0.03264
I          0.13867        0.05566        3.19245
I          0.17126        3.12280       -0.07832
I          3.29049       -0.02608       -0.06139
