12
MA-Pb-I	Energy:   -1279.5433683
C          2.86640        2.90986        3.80717
N          3.12525        4.08854        2.93576
H          3.77962        2.29827        3.87158
H          2.03924        2.31799        3.37850
H          2.57767        3.26576        4.81391
H          3.34255        3.81845        1.95616
H          3.95440        4.66183        3.25332
H          2.29580        4.72804        2.89274
Pb        -0.22036       -0.01337        6.24521
I          6.09549       -0.04334        3.14094
I          5.93034        3.11877       -0.04637
I          2.84953       -0.01393       -0.12862
